Version 4
SHEET 1 980 680
WIRE 608 -192 400 -192
WIRE 400 -144 400 -192
WIRE 352 -128 240 -128
WIRE 352 -80 256 -80
WIRE 400 -16 400 -64
WIRE -144 0 -240 0
WIRE -240 48 -240 0
WIRE 240 96 240 -128
WIRE 240 96 0 96
WIRE 336 96 240 96
WIRE 400 96 400 80
WIRE 336 112 336 96
WIRE 480 112 448 112
WIRE 512 112 512 64
WIRE 512 112 480 112
WIRE 576 128 464 128
WIRE 640 128 576 128
WIRE 688 128 640 128
WIRE -240 160 -240 128
WIRE -144 160 -240 160
WIRE 256 160 256 -80
WIRE 256 160 160 160
WIRE 336 160 336 144
WIRE 336 160 256 160
WIRE 688 160 688 128
WIRE -240 192 -240 160
WIRE 0 192 0 96
WIRE 688 272 688 224
WIRE -240 352 -240 272
WIRE 0 352 0 272
WIRE 160 368 160 160
WIRE 272 384 208 384
WIRE 352 384 272 384
WIRE 528 384 432 384
WIRE 576 400 576 128
WIRE 272 416 272 384
WIRE 160 464 160 448
WIRE 208 464 208 432
WIRE 208 464 160 464
WIRE 528 480 528 464
WIRE 576 480 576 448
WIRE 576 480 528 480
WIRE 160 528 160 464
WIRE 272 528 272 480
WIRE 528 528 528 480
FLAG -240 352 0
FLAG -144 0 UCC
FLAG -144 160 USS
FLAG 0 352 0
FLAG 688 272 0
FLAG 640 128 OUT
FLAG 400 -16 0
FLAG 400 80 UCC
FLAG 400 160 USS
FLAG 272 528 0
FLAG 608 -192 OFFSET
FLAG 160 528 0
FLAG 528 528 0
FLAG 480 112 test
DATAFLAG 528 -192 "round($*1e6)/1e6"
DATAFLAG -224 0 "round(I(VDD)*1e7)/1e7"
SYMBOL voltage -240 32 R0
WINDOW 0 24 34 Left 2
WINDOW 3 34 82 Left 2
SYMATTR InstName VDD
SYMATTR Value 1.8
SYMBOL voltage -240 176 R0
SYMATTR InstName VGND
SYMATTR Value 0
SYMBOL voltage 0 176 R0
WINDOW 123 24 124 Left 2
WINDOW 39 0 0 Left 0
SYMATTR Value2 AC 1
SYMATTR InstName VIN
SYMATTR Value 0.9
SYMBOL cap 672 160 R0
SYMATTR InstName CL
SYMATTR Value 10p
SYMBOL e 400 -160 R0
SYMATTR InstName EOFFSET
SYMATTR Value 1
SYMBOL e 160 352 M0
SYMATTR InstName E1
SYMATTR Value 1
SYMBOL e 528 368 M0
WINDOW 0 38 49 Left 2
SYMATTR InstName E2
SYMATTR Value 1
SYMBOL res 448 368 R90
WINDOW 0 0 56 VBottom 2
WINDOW 3 32 56 VTop 2
SYMATTR InstName R1
SYMATTR Value 10Meg
SYMBOL cap 256 416 R0
WINDOW 39 24 84 Left 2
SYMATTR SpiceLine Rpar=0
SYMATTR InstName C2
SYMATTR Value 10
SYMBOL OTA 400 128 R0
SYMATTR InstName X1
TEXT 0 -184 Left 2 !.ac dec 100 1 100Meg
TEXT 0 -160 Left 2 ;.option logopinfo
