Version 4
SHEET 1 880 680
WIRE 224 64 -192 64
WIRE 224 144 224 64
WIRE 128 160 0 160
WIRE -192 192 -192 64
WIRE 0 192 0 160
WIRE 320 192 224 192
WIRE 128 224 128 160
WIRE 176 224 128 224
WIRE 224 256 224 240
WIRE 320 256 320 192
WIRE 320 256 224 256
WIRE 224 272 224 256
FLAG 224 272 0
FLAG -192 272 0
FLAG 0 272 0
FLAG 224 64 VD
FLAG 0 160 VG
SYMBOL nmos4 176 144 R0
WINDOW 123 55 3 Left 2
SYMATTR Value2 l=lset w=wset
SYMATTR InstName M1
SYMATTR Value nch
SYMBOL voltage 0 176 R0
WINDOW 123 0 0 Left 0
WINDOW 39 0 0 Left 0
SYMATTR InstName Vgs
SYMATTR Value 0.6
SYMBOL voltage -192 176 R0
WINDOW 123 0 0 Left 0
WINDOW 39 0 0 Left 0
SYMATTR InstName VDS
SYMATTR Value 0.9
TEXT -208 -216 Left 2 !.lib modely/cmos018.txt\n.step param lset 0.1u 10u 0.02u\n.param wset=5*lset\n.meas DC ID0 FIND Id(M1) WHEN V(VD)=0.9\n.meas DC ID1 FIND Id(M1) WHEN V(VD)=0.5\n.meas DC ID2 FIND Id(M1) WHEN V(VD)=1.3\n.meas rout param (1.3-0.5)/(ID2-ID1)\n.meas lambda param 1/(ID0*rout)\n.dc VDS 0.5 1.3 10m
