Version 4
SHEET 1 880 680
WIRE 448 64 224 64
WIRE 224 144 224 64
WIRE 128 160 0 160
WIRE 0 192 0 160
WIRE 320 192 224 192
WIRE 448 192 448 64
WIRE 128 224 128 160
WIRE 176 224 128 224
WIRE 320 224 320 192
WIRE 176 272 0 272
WIRE 224 272 224 240
WIRE 224 272 176 272
WIRE 448 272 224 272
FLAG 224 352 0
FLAG 0 160 VG
FLAG 320 224 0
FLAG 176 272 SB
SYMBOL nmos4 176 144 R0
WINDOW 123 55 3 Left 2
SYMATTR Value2 l=1u w=5u
SYMATTR InstName M1
SYMATTR Value nch
SYMBOL voltage 0 176 R0
WINDOW 123 0 0 Left 0
WINDOW 39 0 0 Left 0
SYMATTR InstName Vgs
SYMATTR Value 0.5
SYMBOL voltage 448 176 R0
WINDOW 123 0 0 Left 0
WINDOW 39 0 0 Left 0
SYMATTR InstName VDS
SYMATTR Value 1.8
SYMBOL voltage 224 256 R0
WINDOW 123 0 0 Left 0
WINDOW 39 0 0 Left 0
SYMATTR InstName Vsb
SYMATTR Value 0.5
TEXT -192 -88 Left 2 !.lib modely/cmos018.txt\n.STEP VSB 0 1 10m\n.DC VGS 0 1 1m\n.MEAS DC UTH FIND 'V(VG)-V(SB)' WHEN Id(M1)=500n
