Version 4
SHEET 1 880 680
WIRE 80 64 -192 64
WIRE 224 64 80 64
WIRE 80 80 80 64
WIRE 224 128 224 64
WIRE 320 128 224 128
WIRE 224 176 224 128
WIRE -192 192 -192 64
WIRE 80 192 80 160
WIRE 176 192 80 192
WIRE 320 224 320 128
WIRE 320 224 224 224
WIRE 224 304 224 272
FLAG 224 304 0
FLAG -192 272 0
FLAG -192 64 VD
FLAG 80 192 VG
SYMBOL voltage 80 64 R0
WINDOW 123 0 0 Left 0
WINDOW 39 0 0 Left 0
SYMATTR InstName Vgs
SYMATTR Value 0.6
SYMBOL voltage -192 176 R0
WINDOW 123 0 0 Left 0
WINDOW 39 0 0 Left 0
SYMATTR InstName VDS
SYMATTR Value 0.9
SYMBOL pmos4 176 272 M180
WINDOW 123 56 101 Left 2
SYMATTR Value2 l=wset w=lset
SYMATTR InstName M1
SYMATTR Value pch
TEXT -200 -240 Left 2 !.lib modely/cmos018.txt\n.step param lset 0.1u 10u 0.02u\n.param wset=5*lset\n.meas DC ID0 FIND Is(M1) WHEN V(VD)=0.9\n.meas DC ID1 FIND Is(M1) WHEN V(VD)=0.5\n.meas DC ID2 FIND Is(M1) WHEN V(VD)=1.3\n.meas rout param (1.3-0.5)/(ID2-ID1)\n.meas lambda param 1/(ID0*rout)\n.dc VDS 0.5 1.3 10m
