Version 4
SHEET 1 1368 1252
WIRE -864 144 -1120 144
WIRE -848 144 -864 144
WIRE -624 144 -848 144
WIRE -608 144 -624 144
WIRE -336 144 -608 144
WIRE -320 144 -336 144
WIRE -848 192 -848 144
WIRE -624 192 -624 144
WIRE -336 192 -336 144
WIRE -704 208 -800 208
WIRE -672 208 -704 208
WIRE -384 208 -416 208
WIRE -864 240 -864 144
WIRE -848 240 -864 240
WIRE -608 240 -608 144
WIRE -608 240 -624 240
WIRE -320 240 -320 144
WIRE -320 240 -336 240
WIRE -1120 272 -1120 144
WIRE -704 304 -704 208
WIRE -624 304 -624 288
WIRE -624 304 -704 304
WIRE -416 304 -416 208
WIRE -416 304 -624 304
WIRE -336 336 -336 288
WIRE -240 336 -336 336
WIRE -624 352 -624 304
WIRE -336 352 -336 336
WIRE -576 400 -624 400
WIRE -1120 416 -1120 352
WIRE -848 432 -848 288
WIRE -672 432 -848 432
WIRE -848 480 -848 432
WIRE -240 496 -240 336
WIRE -848 528 -864 528
WIRE -624 560 -624 448
WIRE -624 560 -800 560
WIRE -864 592 -864 528
WIRE -848 592 -848 576
WIRE -848 592 -864 592
WIRE -624 592 -624 560
WIRE -848 720 -848 592
WIRE -624 720 -624 672
FLAG -1120 416 0
FLAG -624 720 0
FLAG -848 720 0
FLAG -576 400 0
FLAG -336 352 OUT
FLAG -240 576 0
DATAFLAG -736 208 "round($*1e4)/1e4"
DATAFLAG -752 432 "round($*1e4)/1e4"
DATAFLAG -688 560 "round($*1e4)/1e4"
DATAFLAG -864 144 "round(Is(M2)*10e6)/10e6"
DATAFLAG -640 144 "round(Is(M4)*10e6)/10e6"
DATAFLAG -336 144 "round(Is(M6)*10e6)/10e6"
SYMBOL nmos4 -672 352 R0
WINDOW 123 56 96 Left 2
SYMATTR Value2 l=2u w=5u
SYMATTR InstName M3
SYMATTR Value nch
SYMBOL voltage -1120 256 R0
SYMATTR InstName VDD
SYMATTR Value 1.8
SYMBOL nmos4 -800 480 M0
WINDOW 123 99 96 Left 2
WINDOW 3 101 72 Left 2
SYMATTR Value2 l=2u w=5u
SYMATTR Value nch
SYMATTR InstName M1
SYMBOL res -640 576 R0
SYMATTR InstName R1
SYMATTR Value 58.4k
SYMBOL pmos4 -800 288 R180
WINDOW 0 -5 103 Left 2
WINDOW 3 81 72 Left 2
WINDOW 123 71 44 Left 2
SYMATTR InstName M2
SYMATTR Value pch
SYMATTR Value2 l=2u w=20u
SYMBOL pmos4 -672 288 M180
WINDOW 0 -1 104 Left 2
WINDOW 3 69 72 Left 2
WINDOW 123 69 44 Left 2
SYMATTR InstName M4
SYMATTR Value pch
SYMATTR Value2 l=2u w=20u
SYMBOL pmos4 -384 288 M180
WINDOW 0 -1 104 Left 2
WINDOW 3 69 72 Left 2
WINDOW 123 69 44 Left 2
SYMATTR InstName M6
SYMATTR Value pch
SYMATTR Value2 l=2u w=100u
SYMBOL voltage -240 480 R0
WINDOW 123 0 0 Left 0
WINDOW 39 0 0 Left 0
SYMATTR InstName V1
SYMATTR Value 1.2
TEXT -776 48 Left 2 !.inc modely/cmos018.txt
TEXT -768 80 Left 2 !.op
TEXT -776 24 Left 2 ;.option logopinfo
